%mem=140GB
%nprocshared=40
# opt freq b3lyp/6-31+g(d,p) scrf=(smd,solvent=THF)

cl(-)...H3C-cl (ts)

0 1
 C                  0.78716700    1.62182500    0.00591500
 H                  1.87330800    1.77754200    0.00372400
 H                  0.37072900    2.11135200   -0.87982500
 H                  0.37599900    2.10003400    0.90027000
 C                  0.52551700    0.13294200   -0.00280300
 H                  0.90582600   -0.35756700   -0.89758000
 H                  0.91088600   -0.36905700    0.88339900
 Br                -1.43037700   -0.27436300   -0.00039200


